/*--------------------------------*- C++ -*----------------------------------*\
| =========                 |                                                 |
| \\      /  F ield         | OpenFOAM: The Open Source CFD Toolbox           |
|  \\    /   O peration     | Version:  2.2.1                                 |
|   \\  /    A nd           | Web:      www.OpenFOAM.org                      |
|    \\/     M anipulation  |                                                 |
\*---------------------------------------------------------------------------*/
FoamFile
{
    version     2.0;
    format      ascii;
    class       dictionary;
    object      blockMeshDict;
}
// * * * * * * * * * * * * * * * * * * * * * * * * * * * * * * * * * * * * * //

convertToMeters 1;	//This gives you the scale: 0.001 would mean all units in this file are [mm]

vertices		//list of vertices defining the geometry
(
    (-2 0 0)		//This is point 0. Not 1!
    (-1 0 0)		//This is point 1
    (0 1 0)		//point 2
    (0 2 0)		//point 3
    (-2 0 1)		//point 4
    (-1 0 1)		//point 5
    (0 1 1) 	//point 6
    (0 2 1)		//point 7
);

blocks			//defining the block which the geometry is made out of
(
    hex (0 1 2 3 4 5 6 7) (64 64 1) simpleGrading (1 1 1)  	  	
//    hex (0 1 2 3 4 5 6 7) (160 160 80) simpleGrading (1 1 1)  	
//    hex (0 1 2 3 4 5 6 7) (50 25 50) simpleGrading (1 1 1)  	
//this means that the only block in the geometry is defined by vertices (0 1 2 ...), there are 100, 10 
//and 1 cells in the x, y, and z direction and that in each direction all the cells have the same length 
);

edges
(
//    spline 0 1 
//    (
//	    (5 -2 0)
//    )
//    spline 4 5 
//    (
//	    (5 -2 0.1)
//    )
arc 1 2 (-0.7071 0.7071 0)
arc 5 6 (-0.7071 0.7071 1)
arc 0 3 (-1.4142 1.4142 0)
arc 4 7 (-1.4142 1.4142 1)
);

boundary
(
    walls	//choose a name for the boundary
    {
        type symmetry;	//define the type of the boundary
        faces
        (
            //(0 4 5 1)	//list the faces; vertices should be listed in clockwise direction, as seen from the block
            //(2 6 7 3)
	    (7 6 5 4)
	    (1 2 3 0)
        );
    }

    
    inlet
    {
        type patch;
        faces
        (
//            (3 7 4 0)
//            (7 6 5 4)
            (0 4 5 1)

	);
    }	   	


    outlet
    {
	type patch;
	faces
	(
//            (2 1 5 6)
//            (1 2 3 0)
            (2 6 7 3)

	);
    }


    frontAndBack
    {
        type symmetry;
        faces
        (
//            (1 2 3 0)
//            (7 6 5 4)
            (3 7 4 0)
            (2 1 5 6)


        );
    }
);


// ************************************************************************* //
