/*--------------------------------*- C++ -*----------------------------------*\
  =========                 |
  \\      /  F ield         | OpenFOAM: The Open Source CFD Toolbox
   \\    /   O peration     | Website:  https://openfoam.org
    \\  /    A nd           | Version:  9
     \\/     M anipulation  |
\*---------------------------------------------------------------------------*/
FoamFile
{
    format      ascii;
    class       polyBoundaryMesh;
    location    "2/polyMesh";
    object      boundary;
}
// * * * * * * * * * * * * * * * * * * * * * * * * * * * * * * * * * * * * * //

5
(
    walls
    {
        type            wall;
        inGroups        List<word> 1(wall);
        nFaces          12800;
        startFace       1760091;
    }
    inlet
    {
        type            patch;
        nFaces          6400;
        startFace       1772891;
    }
    outlet
    {
        type            patch;
        nFaces          6400;
        startFace       1779291;
    }
    frontAndBack
    {
        type            wall;
        inGroups        List<word> 1(wall);
        nFaces          12800;
        startFace       1785691;
    }
    cylinder
    {
        type            wall;
        inGroups        List<word> 1(wall);
        nFaces          28696;
        startFace       1798491;
    }
)

// ************************************************************************* //
