/*--------------------------------*- C++ -*----------------------------------*\
  =========                 |
  \\      /  F ield         | OpenFOAM: The Open Source CFD Toolbox
   \\    /   O peration     | Website:  https://openfoam.org
    \\  /    A nd           | Version:  11
     \\/     M anipulation  |
\*---------------------------------------------------------------------------*/
FoamFile
{
    format      ascii;
    class       featureEdgeMesh;
    location    "constant/triSurface";
    object      cylinder.eMesh;
}
// * * * * * * * * * * * * * * * * * * * * * * * * * * * * * * * * * * * * * //


// points:

200
(
(12.12 -2.96854e-15 0.815)
(12.0961 0.761021 0.815)
(12.12 -2.96854e-15 -0.815)
(12.0961 0.761021 -0.815)
(12.0244 1.51904 0.815)
(12.0244 1.51904 -0.815)
(11.9053 2.27106 0.815)
(11.9053 2.27106 -0.815)
(11.7392 3.01412 0.815)
(11.7392 3.01412 -0.815)
(11.5268 3.74529 0.815)
(11.5268 3.74529 -0.815)
(11.2689 4.46167 0.815)
(11.2689 4.46167 -0.815)
(10.9665 5.16045 0.815)
(10.9665 5.16045 -0.815)
(10.6208 5.83885 0.815)
(10.6208 5.83885 -0.815)
(10.2332 6.49422 0.815)
(10.2332 6.49422 -0.815)
(9.80529 7.12396 0.815)
(9.80529 7.12396 -0.815)
(9.33862 7.72558 0.815)
(9.33862 7.72558 -0.815)
(8.8351 8.29671 0.815)
(8.8351 8.29671 -0.815)
(8.29671 8.8351 0.815)
(8.29671 8.8351 -0.815)
(7.72558 9.33862 0.815)
(7.72558 9.33862 -0.815)
(7.12396 9.80529 0.815)
(7.12396 9.80529 -0.815)
(6.49422 10.2332 0.815)
(6.49422 10.2332 -0.815)
(5.83885 10.6208 0.815)
(5.83885 10.6208 -0.815)
(5.16045 10.9665 0.815)
(5.16045 10.9665 -0.815)
(4.46167 11.2689 0.815)
(4.46167 11.2689 -0.815)
(3.74529 11.5268 0.815)
(3.74529 11.5268 -0.815)
(3.01412 11.7392 0.815)
(3.01412 11.7392 -0.815)
(2.27106 11.9053 0.815)
(2.27106 11.9053 -0.815)
(1.51904 12.0244 0.815)
(1.51904 12.0244 -0.815)
(0.761021 12.0961 0.815)
(0.761021 12.0961 -0.815)
(-1.94905e-15 12.12 0.815)
(-1.94905e-15 12.12 -0.815)
(-0.761021 12.0961 0.815)
(-0.761021 12.0961 -0.815)
(-1.51904 12.0244 0.815)
(-1.51904 12.0244 -0.815)
(-2.27106 11.9053 0.815)
(-2.27106 11.9053 -0.815)
(-3.01412 11.7392 0.815)
(-3.01412 11.7392 -0.815)
(-3.74529 11.5268 0.815)
(-3.74529 11.5268 -0.815)
(-4.46167 11.2689 0.815)
(-4.46167 11.2689 -0.815)
(-5.16045 10.9665 0.815)
(-5.16045 10.9665 -0.815)
(-5.83885 10.6208 0.815)
(-5.83885 10.6208 -0.815)
(-6.49422 10.2332 0.815)
(-6.49422 10.2332 -0.815)
(-7.12396 9.80529 0.815)
(-7.12396 9.80529 -0.815)
(-7.72558 9.33862 0.815)
(-7.72558 9.33862 -0.815)
(-8.29671 8.8351 0.815)
(-8.29671 8.8351 -0.815)
(-8.8351 8.29671 0.815)
(-8.8351 8.29671 -0.815)
(-9.33862 7.72558 0.815)
(-9.33862 7.72558 -0.815)
(-9.80529 7.12396 0.815)
(-9.80529 7.12396 -0.815)
(-10.2332 6.49422 0.815)
(-10.2332 6.49422 -0.815)
(-10.6208 5.83885 0.815)
(-10.6208 5.83885 -0.815)
(-10.9665 5.16045 0.815)
(-10.9665 5.16045 -0.815)
(-11.2689 4.46167 0.815)
(-11.2689 4.46167 -0.815)
(-11.5268 3.74529 0.815)
(-11.5268 3.74529 -0.815)
(-11.7392 3.01412 0.815)
(-11.7392 3.01412 -0.815)
(-11.9053 2.27106 0.815)
(-11.9053 2.27106 -0.815)
(-12.0244 1.51904 0.815)
(-12.0244 1.51904 -0.815)
(-12.0961 0.761021 0.815)
(-12.0961 0.761021 -0.815)
(-12.12 1.48427e-15 0.815)
(-12.12 1.48427e-15 -0.815)
(-12.0961 -0.761021 0.815)
(-12.0961 -0.761021 -0.815)
(-12.0244 -1.51904 0.815)
(-12.0244 -1.51904 -0.815)
(-11.9053 -2.27106 0.815)
(-11.9053 -2.27106 -0.815)
(-11.7392 -3.01412 0.815)
(-11.7392 -3.01412 -0.815)
(-11.5268 -3.74529 0.815)
(-11.5268 -3.74529 -0.815)
(-11.2689 -4.46167 0.815)
(-11.2689 -4.46167 -0.815)
(-10.9665 -5.16045 0.815)
(-10.9665 -5.16045 -0.815)
(-10.6208 -5.83885 0.815)
(-10.6208 -5.83885 -0.815)
(-10.2332 -6.49422 0.815)
(-10.2332 -6.49422 -0.815)
(-9.80529 -7.12396 0.815)
(-9.80529 -7.12396 -0.815)
(-9.33862 -7.72558 0.815)
(-9.33862 -7.72558 -0.815)
(-8.8351 -8.29671 0.815)
(-8.8351 -8.29671 -0.815)
(-8.29671 -8.8351 0.815)
(-8.29671 -8.8351 -0.815)
(-7.72558 -9.33862 0.815)
(-7.72558 -9.33862 -0.815)
(-7.12396 -9.80529 0.815)
(-7.12396 -9.80529 -0.815)
(-6.49422 -10.2332 0.815)
(-6.49422 -10.2332 -0.815)
(-5.83885 -10.6208 0.815)
(-5.83885 -10.6208 -0.815)
(-5.16045 -10.9665 0.815)
(-5.16045 -10.9665 -0.815)
(-4.46167 -11.2689 0.815)
(-4.46167 -11.2689 -0.815)
(-3.74529 -11.5268 0.815)
(-3.74529 -11.5268 -0.815)
(-3.01412 -11.7392 0.815)
(-3.01412 -11.7392 -0.815)
(-2.27106 -11.9053 0.815)
(-2.27106 -11.9053 -0.815)
(-1.51904 -12.0244 0.815)
(-1.51904 -12.0244 -0.815)
(-0.761021 -12.0961 0.815)
(-0.761021 -12.0961 -0.815)
(-2.22641e-15 -12.12 0.815)
(-2.22641e-15 -12.12 -0.815)
(0.761021 -12.0961 0.815)
(0.761021 -12.0961 -0.815)
(1.51904 -12.0244 0.815)
(1.51904 -12.0244 -0.815)
(2.27106 -11.9053 0.815)
(2.27106 -11.9053 -0.815)
(3.01412 -11.7392 0.815)
(3.01412 -11.7392 -0.815)
(3.74529 -11.5268 0.815)
(3.74529 -11.5268 -0.815)
(4.46167 -11.2689 0.815)
(4.46167 -11.2689 -0.815)
(5.16045 -10.9665 0.815)
(5.16045 -10.9665 -0.815)
(5.83885 -10.6208 0.815)
(5.83885 -10.6208 -0.815)
(6.49422 -10.2332 0.815)
(6.49422 -10.2332 -0.815)
(7.12396 -9.80529 0.815)
(7.12396 -9.80529 -0.815)
(7.72558 -9.33862 0.815)
(7.72558 -9.33862 -0.815)
(8.29671 -8.8351 0.815)
(8.29671 -8.8351 -0.815)
(8.8351 -8.29671 0.815)
(8.8351 -8.29671 -0.815)
(9.33862 -7.72558 0.815)
(9.33862 -7.72558 -0.815)
(9.80529 -7.12396 0.815)
(9.80529 -7.12396 -0.815)
(10.2332 -6.49422 0.815)
(10.2332 -6.49422 -0.815)
(10.6208 -5.83885 0.815)
(10.6208 -5.83885 -0.815)
(10.9665 -5.16045 0.815)
(10.9665 -5.16045 -0.815)
(11.2689 -4.46167 0.815)
(11.2689 -4.46167 -0.815)
(11.5268 -3.74529 0.815)
(11.5268 -3.74529 -0.815)
(11.7392 -3.01412 0.815)
(11.7392 -3.01412 -0.815)
(11.9053 -2.27106 0.815)
(11.9053 -2.27106 -0.815)
(12.0244 -1.51904 0.815)
(12.0244 -1.51904 -0.815)
(12.0961 -0.761021 0.815)
(12.0961 -0.761021 -0.815)
)


// edges:

200
(
(0 1)
(2 3)
(1 4)
(3 5)
(4 6)
(5 7)
(6 8)
(7 9)
(8 10)
(9 11)
(10 12)
(11 13)
(12 14)
(13 15)
(14 16)
(15 17)
(16 18)
(17 19)
(18 20)
(19 21)
(20 22)
(21 23)
(22 24)
(23 25)
(24 26)
(25 27)
(26 28)
(27 29)
(28 30)
(29 31)
(30 32)
(31 33)
(32 34)
(33 35)
(34 36)
(35 37)
(36 38)
(37 39)
(38 40)
(39 41)
(40 42)
(41 43)
(42 44)
(43 45)
(44 46)
(45 47)
(46 48)
(47 49)
(48 50)
(49 51)
(50 52)
(51 53)
(52 54)
(53 55)
(54 56)
(55 57)
(56 58)
(57 59)
(58 60)
(59 61)
(60 62)
(61 63)
(62 64)
(63 65)
(64 66)
(65 67)
(66 68)
(67 69)
(68 70)
(69 71)
(70 72)
(71 73)
(72 74)
(73 75)
(74 76)
(75 77)
(76 78)
(77 79)
(78 80)
(79 81)
(80 82)
(81 83)
(82 84)
(83 85)
(84 86)
(85 87)
(86 88)
(87 89)
(88 90)
(89 91)
(90 92)
(91 93)
(92 94)
(93 95)
(94 96)
(95 97)
(96 98)
(97 99)
(98 100)
(99 101)
(100 102)
(101 103)
(102 104)
(103 105)
(104 106)
(105 107)
(106 108)
(107 109)
(108 110)
(109 111)
(110 112)
(111 113)
(112 114)
(113 115)
(114 116)
(115 117)
(116 118)
(117 119)
(118 120)
(119 121)
(120 122)
(121 123)
(122 124)
(123 125)
(124 126)
(125 127)
(126 128)
(127 129)
(128 130)
(129 131)
(130 132)
(131 133)
(132 134)
(133 135)
(134 136)
(135 137)
(136 138)
(137 139)
(138 140)
(139 141)
(140 142)
(141 143)
(142 144)
(143 145)
(144 146)
(145 147)
(146 148)
(147 149)
(148 150)
(149 151)
(150 152)
(151 153)
(152 154)
(153 155)
(154 156)
(155 157)
(156 158)
(157 159)
(158 160)
(159 161)
(160 162)
(161 163)
(162 164)
(163 165)
(164 166)
(165 167)
(166 168)
(167 169)
(168 170)
(169 171)
(170 172)
(171 173)
(172 174)
(173 175)
(174 176)
(175 177)
(176 178)
(177 179)
(178 180)
(179 181)
(180 182)
(181 183)
(182 184)
(183 185)
(184 186)
(185 187)
(186 188)
(187 189)
(188 190)
(189 191)
(190 192)
(191 193)
(192 194)
(193 195)
(194 196)
(195 197)
(196 198)
(197 199)
(198 0)
(199 2)
)

// * * * * * * * * * * * * * * * * * * * * * * * * * * * * * * * * * * * * * //


// ************************************************************************* //
