/*--------------------------------*- C++ -*----------------------------------*\
| =========                 |                                                 |
| \\      /  F ield         | OpenFOAM: The Open Source CFD Toolbox           |
|  \\    /   O peration     | Version:  5.x                                   |
|   \\  /    A nd           | Web:      www.OpenFOAM.org                      |
|    \\/     M anipulation  |                                                 |
\*---------------------------------------------------------------------------*/
/*   Windows 32 and 64 bit porting by blueCAPE: http://www.bluecape.com.pt   *\
|  Based on Windows porting (2.0.x v4) by Symscape: http://www.symscape.com   |
\*---------------------------------------------------------------------------*/
FoamFile
{
    version     2.0;
    format      ascii;
    class       extendedFeatureEdgeMesh;
    location    "constant/extendedFeatureEdgeMesh";
    object      cylinder.extendedFeatureEdgeMesh;
}
// * * * * * * * * * * * * * * * * * * * * * * * * * * * * * * * * * * * * * //

// points

92
(
(0.0568083 0 0.000465702)
(0.05 0 0)
(0.0568083 0.2 0.000465702)
(0.0634898 0.2 0.00185414)
(0.0634898 0 0.00185414)
(0.0699201 0.2 0.00413944)
(0.0699201 0 0.00413944)
(0.0759792 0.2 0.00727903)
(0.0759792 0 0.00727903)
(0.0815544 0.2 0.0112144)
(0.0815544 0 0.0112144)
(0.0865418 0.2 0.0158723)
(0.0865418 0 0.0158723)
(0.0908485 0.2 0.021166)
(0.0908485 0 0.021166)
(0.0943943 0.2 0.0269968)
(0.0943943 0 0.0269968)
(0.097113 0.2 0.033256)
(0.097113 0 0.033256)
(0.0989542 0.2 0.0398272)
(0.0989542 0 0.0398272)
(0.0998834 0.2 0.0465879)
(0.0998834 0 0.0465879)
(0.0998834 0.2 0.0534121)
(0.0998834 0 0.0534121)
(0.0989542 0.2 0.0601728)
(0.0989542 0 0.0601728)
(0.097113 0.2 0.066744)
(0.097113 0 0.066744)
(0.0943943 0.2 0.0730032)
(0.0943943 0 0.0730032)
(0.0908485 0.2 0.078834)
(0.0908485 0 0.078834)
(0.0865418 0.2 0.0841277)
(0.0865418 0 0.0841277)
(0.0815544 0.2 0.0887856)
(0.0815544 0 0.0887856)
(0.0759792 0.2 0.092721)
(0.0759792 0 0.092721)
(0.0699201 0.2 0.0958606)
(0.0699201 0 0.0958606)
(0.0634898 0.2 0.0981459)
(0.0634898 0 0.0981459)
(0.0568083 0.2 0.0995343)
(0.0568083 0 0.0995343)
(0.05 0.2 0.1)
(0.05 0 0.1)
(0.0431917 0.2 0.0995343)
(0.0431917 0 0.0995343)
(0.0365102 0.2 0.0981459)
(0.0365102 0 0.0981459)
(0.0300799 0.2 0.0958606)
(0.0300799 0 0.0958606)
(0.0240208 0.2 0.092721)
(0.0240208 0 0.092721)
(0.0184456 0.2 0.0887856)
(0.0184456 0 0.0887856)
(0.0134582 0.2 0.0841277)
(0.0134582 0 0.0841277)
(0.00915151 0.2 0.078834)
(0.00915151 0 0.078834)
(0.00560574 0.2 0.0730032)
(0.00560574 0 0.0730032)
(0.00288695 0.2 0.066744)
(0.00288695 0 0.066744)
(0.0010458 0.2 0.0601728)
(0.0010458 0 0.0601728)
(0.000116561 0.2 0.0534121)
(0.000116561 0 0.0534121)
(0.000116561 0.2 0.0465879)
(0.000116561 0 0.0465879)
(0.0010458 0.2 0.0398272)
(0.0010458 0 0.0398272)
(0.00288695 0.2 0.033256)
(0.00288695 0 0.033256)
(0.00560574 0.2 0.0269968)
(0.00560574 0 0.0269968)
(0.00915151 0.2 0.021166)
(0.00915151 0 0.021166)
(0.0134582 0.2 0.0158723)
(0.0134582 0 0.0158723)
(0.0184456 0.2 0.0112144)
(0.0184456 0 0.0112144)
(0.0240208 0.2 0.00727903)
(0.0240208 0 0.00727903)
(0.0300799 0.2 0.00413944)
(0.0300799 0 0.00413944)
(0.0365102 0.2 0.00185414)
(0.0365102 0 0.00185414)
(0.0431917 0.2 0.000465702)
(0.0431917 0 0.000465702)
(0.05 0.2 0)
)

// edges

92
(
(0 1)
(2 3)
(4 0)
(3 5)
(6 4)
(5 7)
(8 6)
(7 9)
(10 8)
(9 11)
(12 10)
(11 13)
(14 12)
(13 15)
(16 14)
(15 17)
(18 16)
(17 19)
(20 18)
(19 21)
(22 20)
(21 23)
(24 22)
(23 25)
(26 24)
(25 27)
(28 26)
(27 29)
(30 28)
(29 31)
(32 30)
(31 33)
(34 32)
(33 35)
(36 34)
(35 37)
(38 36)
(37 39)
(40 38)
(39 41)
(42 40)
(41 43)
(44 42)
(43 45)
(46 44)
(45 47)
(48 46)
(47 49)
(50 48)
(49 51)
(52 50)
(51 53)
(54 52)
(53 55)
(56 54)
(55 57)
(58 56)
(57 59)
(60 58)
(59 61)
(62 60)
(61 63)
(64 62)
(63 65)
(66 64)
(65 67)
(68 66)
(67 69)
(70 68)
(69 71)
(72 70)
(71 73)
(74 72)
(73 75)
(76 74)
(75 77)
(78 76)
(77 79)
(80 78)
(79 81)
(82 80)
(81 83)
(84 82)
(83 85)
(86 84)
(85 87)
(88 86)
(87 89)
(90 88)
(89 91)
(1 90)
(91 2)
)

// concaveStart mixedStart nonFeatureStart
0 0 0
// internalStart flatStart openStart multipleStart
92 92 92 92
// normals

184
(
(0.0682424 0 -0.997669)
(0 -1 0)
(0.203456 0 -0.979084)
(0 1 0)
(0.203456 0 -0.979084)
(0 -1 0)
(0.334879 0 -0.942261)
(0 1 0)
(0.334879 0 -0.942261)
(0 -1 0)
(0.460065 0 -0.887885)
(0 1 0)
(0.460065 0 -0.887885)
(0 -1 0)
(0.576681 0 -0.816969)
(0 1 0)
(0.576681 0 -0.816969)
(0 -1 0)
(0.682552 0 -0.730837)
(0 1 0)
(0.682552 0 -0.730837)
(0 -1 0)
(0.775712 0 -0.631087)
(0 1 0)
(0.775712 0 -0.631087)
(0 -1 0)
(0.854419 0 -0.519585)
(0 1 0)
(0.854419 0 -0.519585)
(0 -1 0)
(0.917212 0 -0.3984)
(0 1 0)
(0.917212 0 -0.3984)
(0 -1 0)
(0.962917 0 -0.269797)
(0 1 0)
(0.962917 0 -0.269797)
(0 -1 0)
(0.990686 0 -0.136167)
(0 1 0)
(0.990686 0 -0.136167)
(0 -1 0)
(1 0 0)
(-0 1 0)
(1 0 0)
(0 -1 0)
(0.990686 -0 0.136167)
(0 1 0)
(0.990686 0 0.136167)
(0 -1 0)
(0.962917 -0 0.269797)
(0 1 0)
(0.962917 0 0.269797)
(0 -1 0)
(0.917212 -0 0.3984)
(0 1 0)
(0.917212 0 0.3984)
(-0 -1 0)
(0.854419 -0 0.519584)
(0 1 0)
(0.854419 0 0.519584)
(0 -1 0)
(0.775712 -0 0.631088)
(0 1 0)
(0.775712 0 0.631088)
(0 -1 0)
(0.682553 -0 0.730836)
(0 1 0)
(0.682553 0 0.730836)
(-0 -1 0)
(0.57668 -0 0.81697)
(0 1 0)
(0.57668 0 0.81697)
(0 -1 0)
(0.460066 -0 0.887885)
(0 1 0)
(0.460066 0 0.887885)
(0 -1 0)
(0.334878 -0 0.942262)
(0 1 0)
(0.334878 0 0.942262)
(-0 -1 0)
(0.203458 -0 0.979084)
(0 1 0)
(0.203458 0 0.979084)
(0 -1 0)
(0.0682418 -0 0.997669)
(0 1 0)
(0.0682418 0 0.997669)
(0 -1 0)
(-0.0682418 0 0.997669)
(0 1 -0)
(-0.0682418 0 0.997669)
(0 -1 -0)
(-0.203458 0 0.979084)
(0 1 0)
(-0.203458 0 0.979084)
(0 -1 -0)
(-0.334878 0 0.942261)
(-0 1 0)
(-0.334878 0 0.942261)
(0 -1 0)
(-0.460065 0 0.887885)
(0 1 0)
(-0.460065 0 0.887885)
(0 -1 0)
(-0.57668 0 0.81697)
(0 1 0)
(-0.57668 0 0.81697)
(0 -1 -0)
(-0.682553 0 0.730836)
(-0 1 0)
(-0.682553 0 0.730836)
(0 -1 0)
(-0.775711 0 0.631088)
(0 1 0)
(-0.775711 0 0.631088)
(0 -1 0)
(-0.85442 0 0.519584)
(0 1 0)
(-0.85442 0 0.519584)
(0 -1 -0)
(-0.917211 0 0.398401)
(-0 1 0)
(-0.917211 0 0.398401)
(0 -1 0)
(-0.962917 0 0.269797)
(0 1 0)
(-0.962917 0 0.269797)
(0 -1 0)
(-0.990686 0 0.136167)
(0 1 0)
(-0.990686 0 0.136167)
(0 -1 -0)
(-1 0 0)
(0 1 0)
(-1 0 0)
(-0 -1 0)
(-0.990686 0 -0.136167)
(0 1 0)
(-0.990686 0 -0.136167)
(0 -1 0)
(-0.962917 0 -0.269797)
(0 1 0)
(-0.962917 0 -0.269797)
(0 -1 0)
(-0.917211 0 -0.398401)
(0 1 -0)
(-0.917211 0 -0.398401)
(0 -1 0)
(-0.85442 0 -0.519584)
(0 1 0)
(-0.85442 0 -0.519584)
(0 -1 0)
(-0.775711 0 -0.631088)
(0 1 0)
(-0.775711 0 -0.631088)
(0 -1 0)
(-0.682553 0 -0.730836)
(0 1 -0)
(-0.682553 0 -0.730836)
(0 -1 0)
(-0.576681 0 -0.81697)
(0 1 0)
(-0.576681 0 -0.81697)
(0 -1 0)
(-0.460065 0 -0.887885)
(0 1 0)
(-0.460065 0 -0.887885)
(0 -1 0)
(-0.33488 0 -0.942261)
(0 1 -0)
(-0.33488 0 -0.942261)
(0 -1 0)
(-0.203456 0 -0.979084)
(0 1 0)
(-0.203456 0 -0.979084)
(0 -1 0)
(-0.0682424 0 -0.997669)
(0 1 0)
(-0.0682424 0 -0.997669)
(0 -1 0)
(0.0682424 0 -0.997669)
(0 1 0)
)

// normal volume types

184
(
0
0
0
0
0
0
0
0
0
0
0
0
0
0
0
0
0
0
0
0
0
0
0
0
0
0
0
0
0
0
0
0
0
0
0
0
0
0
0
0
0
0
0
0
0
0
0
0
0
0
0
0
0
0
0
0
0
0
0
0
0
0
0
0
0
0
0
0
0
0
0
0
0
0
0
0
0
0
0
0
0
0
0
0
0
0
0
0
0
0
0
0
0
0
0
0
0
0
0
0
0
0
0
0
0
0
0
0
0
0
0
0
0
0
0
0
0
0
0
0
0
0
0
0
0
0
0
0
0
0
0
0
0
0
0
0
0
0
0
0
0
0
0
0
0
0
0
0
0
0
0
0
0
0
0
0
0
0
0
0
0
0
0
0
0
0
0
0
0
0
0
0
0
0
0
0
0
0
0
0
0
0
0
0
)

// normalDirections

92
(
2(1 -1)
2(1 -1)
2(1 -1)
2(1 -1)
2(1 -1)
2(1 -1)
2(1 -1)
2(1 -1)
2(1 -1)
2(1 -1)
2(1 -1)
2(1 -1)
2(1 -1)
2(1 -1)
2(1 -1)
2(1 -1)
2(1 -1)
2(1 -1)
2(1 -1)
2(1 -1)
2(1 -1)
2(1 -1)
2(1 -1)
2(1 -1)
2(1 -1)
2(1 -1)
2(1 -1)
2(1 -1)
2(1 -1)
2(1 -1)
2(1 -1)
2(1 -1)
2(1 -1)
2(1 -1)
2(1 -1)
2(1 -1)
2(1 -1)
2(1 -1)
2(1 -1)
2(1 -1)
2(1 -1)
2(1 -1)
2(1 -1)
2(1 -1)
2(1 -1)
2(1 -1)
2(1 -1)
2(1 -1)
2(1 -1)
2(1 -1)
2(1 -1)
2(1 -1)
2(1 -1)
2(1 -1)
2(1 -1)
2(1 -1)
2(1 -1)
2(1 -1)
2(1 -1)
2(1 -1)
2(1 -1)
2(1 -1)
2(1 -1)
2(1 -1)
2(1 -1)
2(1 -1)
2(1 -1)
2(1 -1)
2(1 -1)
2(1 -1)
2(1 -1)
2(1 -1)
2(1 -1)
2(1 -1)
2(1 -1)
2(1 -1)
2(1 -1)
2(1 -1)
2(1 -1)
2(1 -1)
2(1 -1)
2(1 -1)
2(1 -1)
2(1 -1)
2(1 -1)
2(1 -1)
2(1 -1)
2(1 -1)
2(1 -1)
2(1 -1)
2(1 -1)
2(1 -1)
)

// edgeNormals

92
(
2(0 1)
2(2 3)
2(4 5)
2(6 7)
2(8 9)
2(10 11)
2(12 13)
2(14 15)
2(16 17)
2(18 19)
2(20 21)
2(22 23)
2(24 25)
2(26 27)
2(28 29)
2(30 31)
2(32 33)
2(34 35)
2(36 37)
2(38 39)
2(40 41)
2(42 43)
2(44 45)
2(46 47)
2(48 49)
2(50 51)
2(52 53)
2(54 55)
2(56 57)
2(58 59)
2(60 61)
2(62 63)
2(64 65)
2(66 67)
2(68 69)
2(70 71)
2(72 73)
2(74 75)
2(76 77)
2(78 79)
2(80 81)
2(82 83)
2(84 85)
2(86 87)
2(88 89)
2(90 91)
2(92 93)
2(94 95)
2(96 97)
2(98 99)
2(100 101)
2(102 103)
2(104 105)
2(106 107)
2(108 109)
2(110 111)
2(112 113)
2(114 115)
2(116 117)
2(118 119)
2(120 121)
2(122 123)
2(124 125)
2(126 127)
2(128 129)
2(130 131)
2(132 133)
2(134 135)
2(136 137)
2(138 139)
2(140 141)
2(142 143)
2(144 145)
2(146 147)
2(148 149)
2(150 151)
2(152 153)
2(154 155)
2(156 157)
2(158 159)
2(160 161)
2(162 163)
2(164 165)
2(166 167)
2(168 169)
2(170 171)
2(172 173)
2(174 175)
2(176 177)
2(178 179)
2(180 181)
2(182 183)
)

// featurePointNormals
0()
// featurePointEdges
0()
// regionEdges
0()


// ************************************************************************* //
