/*--------------------------------*- C++ -*----------------------------------*\
| =========                 |                                                 |
| \\      /  F ield         | OpenFOAM: The Open Source CFD Toolbox           |
|  \\    /   O peration     | Version:  2.2.1                                 |
|   \\  /    A nd           | Web:      www.OpenFOAM.org                      |
|    \\/     M anipulation  |                                                 |
\*---------------------------------------------------------------------------*/
FoamFile
{
    version     2.0;
    format      ascii;
    class       volScalarField;
    object      p;
}
// * * * * * * * * * * * * * * * * * * * * * * * * * * * * * * * * * * * * * //

dimensions      [0 2 -2 0 0 0 0];

internalField   uniform 0;

boundaryField
{
    rotor
    {
        type            zeroGradient;
//       type            fixedValue;
  //      value           $internalField;
//        type            cyclic;


    }
    stator
    {
    //    type            zeroGradient;
  type            fixedValue;
        value           $internalField;
  //      type            cyclic;


    }
   hub
    {
        type            zeroGradient;
    }
    shroud
    {
        type            zeroGradient;
    }

    inlet
    {
//        type            cyclic;
        type            zeroGradient;

    }

    outlet
    {
//        type            cyclic;
        type            zeroGradient;

    }


}

// ************************************************************************* //
